case2_AW/case2_single_load/case2_5mile.dss
Clear
New Circuit.2Bus_1Phase_example
!  define a really stiff source
! basekv = rated line-to-line kV
! pu = Actual per unit at which the source is operating. Assumed balanced for all phases.
! MVAsc1 = 1-phase short circuit MVA. There is some ambiguity concerning the meaning of this quantity. For the DSS, it is defined as kVBase2 / Z1-phase where  
!        Z1-phase = 1/3 (2Z1+Z0)        Thus, unless a neutral reactor is used, it should be a number on the same order of magnitude as Mvasc3.
! MVAsc3 = 3-phase short circuit MVA= kVBase2 / ZSC
! basemva = Default value is 100. Base used to convert values specified with puZ1, puZ0, and puZ2 properties to ohms on kV base specified by BasekV property.

~ basekv=13.7   pu=0.9959  MVAsc1=1e6  MVAsc3=1e6 basemva=0.5

!Define Linecodes


New linecode.556MCM nphases=3 basefreq=50  ! ohms per 5 mile
!Lower triangular form with | = row: [11 | 21 22 | 31 32 33]
!Assume the line is transposed and symmetric because z_s same and z_m same for x,r,c
~ rmatrix = ( 0.41  | 0.0400    0.1000 |  0.0400    0.0400    0.1000)
~ xmatrix = ( 0.96  |  0.0233    0.0583 | 0.0233    0.0233    0.0583)
~ cmatrix = (7.98  | -0  50.92958178940651 | -0 -0 50.92958178940651  ) ! small capacitance

!Define lines - single phase

New Line.OHLine  bus1=sourcebus.1 loadbus.1 linecode = 556MCM   length=1  ! 5 mile line

!Loads - single phase

New Load.L1 phases=1  loadbus.1.0   ( 13.8 3 sqrt / )   kW=100   kvar=20  model=1
!New Load.L2 phases=1  loadbus.2.0   ( 0.4 3 sqrt / )   kW=6   kvar=3  model=1
!New Load.L3 phases=1  loadbus.3.0   ( 0.4 3 sqrt / )   kW=6   kvar=3  model=1


Set voltagebases=[13.8]
!Set tolerance=0.000001
!set defaultbasefreq=50
Calcvoltagebases

Solve

Dump Load.L1 debug
